LTspice 24.1.10 for Windows
Circuit: C:\Users\bln15\Documents\GitHub\openlab-drone\LTSpice-schematics\pwm_shenanigans.net
Start Time: Sun Jun 14 13:02:05 2026
solver = Normal
Maximum thread count: 12
tnom = 27
temp = 27
method = trap
Direct Newton iteration for .op point succeeded.
Total elapsed time: 0.151 seconds.

Files loaded:
C:\Users\bln15\Documents\GitHub\openlab-drone\LTSpice-schematics\pwm_shenanigans.net
C:\Users\bln15\AppData\Local\LTspice\lib\cmp\standard.dio
C:\Users\bln15\AppData\Local\LTspice\lib\cmp\standard.mos

