LTspice 26.0.2 for Windows
Circuit: C:\Users\z0323908\OneDrive - ZF Friedrichshafen AG\Documents\github\openlab-drone\LTSpice-schematics\pwm_shenanigans.net
Start Time: Fri May 15 14:05:07 2026
solver = Normal
Maximum thread count: 12
tnom = 27
temp = 27
method = trap
Direct Newton iteration succeeded in finding operating point.
Total elapsed time: 0.289 seconds.

Files loaded:
C:\Users\z0323908\OneDrive - ZF Friedrichshafen AG\Documents\github\openlab-drone\LTSpice-schematics\pwm_shenanigans.net
C:\Users\z0323908\AppData\Local\LTspice\lib\cmp\standard.dio
C:\Users\z0323908\AppData\Local\LTspice\lib\cmp\standard.mos
C:\Users\z0323908\OneDrive - ZF Friedrichshafen AG\Documents\github\openlab-drone\LTSpice-schematics\AO3400.mod

